!- Windows Line endings 

Version,
    22.1;                     !- Version Identifier

SimulationControl,
    Yes,                      !- Do Zone Sizing Calculation
    Yes,                      !- Do System Sizing Calculation
    Yes,                      !- Do Plant Sizing Calculation
    No,                       !- Run Simulation for Sizing Periods
    Yes,                      !- Run Simulation for Weather File Run Periods
    No,                       !- Do HVAC Sizing Simulation for Sizing Periods
    ;                         !- Maximum Number of HVAC Sizing Simulation Passes

Building,
    Building 1,               !- Name
    0,                        !- North Axis
    City,                     !- Terrain
    ,                         !- Loads Convergence Tolerance Value
    ,                         !- Temperature Convergence Tolerance Value
    FullExteriorWithReflections,    !- Solar Distribution
    ,                         !- Maximum Number of Warmup Days
    ;                         !- Minimum Number of Warmup Days

ShadowCalculation,
    PolygonClipping,          !- Shading Calculation Method
    Periodic,                 !- Shading Calculation Update Frequency Method
    30,                       !- Shading Calculation Update Frequency
    15000,                    !- Maximum Figures in Shadow Overlap Calculations
    SutherlandHodgman,        !- Polygon Clipping Algorithm
    512,                      !- Pixel Counting Resolution
    SimpleSkyDiffuseModeling,    !- Sky Diffuse Modeling Algorithm
    No,                       !- Output External Shading Calculation Results
    No,                       !- Disable SelfShading Within Shading Zone Groups
    No;                       !- Disable SelfShading From Shading Zone Groups to Other Zones

HeatBalanceAlgorithm,
    ConductionTransferFunction,    !- Algorithm
    200;                      !- Surface Temperature Upper Limit

Timestep,
    6;                        !- Number of Timesteps per Hour

Site:Location,
    Chicago Midway Intl AP,    !- Name
    41.783,                   !- Latitude
    -87.75,                   !- Longitude
    -6,                       !- Time Zone
    186;                      !- Elevation

SizingPeriod:DesignDay,
    Chicago Midway Intl AP Ann Clg .4% Condns DB=>MWB,    !- Name
    7,                        !- Month
    21,                       !- Day of Month
    SummerDesignDay,          !- Day Type
    33.2,                     !- Maximum DryBulb Temperature
    8.7,                      !- Daily DryBulb Temperature Range
    DefaultMultipliers,       !- DryBulb Temperature Range Modifier Type
    ,                         !- DryBulb Temperature Range Modifier Day Schedule Name
    Wetbulb,                  !- Humidity Condition Type
    23.7,                     !- Wetbulb or DewPoint at Maximum DryBulb
    ,                         !- Humidity Condition Day Schedule Name
    ,                         !- Humidity Ratio at Maximum DryBulb
    ,                         !- Enthalpy at Maximum DryBulb
    ,                         !- Daily WetBulb Temperature Range
    99110,                    !- Barometric Pressure
    5.5,                      !- Wind Speed
    220,                      !- Wind Direction
    No,                       !- Rain Indicator
    No,                       !- Snow Indicator
    No,                       !- Daylight Saving Time Indicator
    ASHRAETau,                !- Solar Model Indicator
    ,                         !- Beam Solar Day Schedule Name
    ,                         !- Diffuse Solar Day Schedule Name
    0.452,                    !- ASHRAE Clear Sky Optical Depth for Beam Irradiance taub
    2.212,                    !- ASHRAE Clear Sky Optical Depth for Diffuse Irradiance taud
    ,                         !- Sky Clearness
    ,                         !- Maximum Number Warmup Days
    FullResetAtBeginEnvironment;    !- Begin Environment Reset Mode

SizingPeriod:DesignDay,
    Chicago Midway Intl AP Ann Clg .4% Condns DP=>MDB,    !- Name
    7,                        !- Month
    21,                       !- Day of Month
    SummerDesignDay,          !- Day Type
    28.9,                     !- Maximum DryBulb Temperature
    8.7,                      !- Daily DryBulb Temperature Range
    DefaultMultipliers,       !- DryBulb Temperature Range Modifier Type
    ,                         !- DryBulb Temperature Range Modifier Day Schedule Name
    Dewpoint,                 !- Humidity Condition Type
    23.8,                     !- Wetbulb or DewPoint at Maximum DryBulb
    ,                         !- Humidity Condition Day Schedule Name
    ,                         !- Humidity Ratio at Maximum DryBulb
    ,                         !- Enthalpy at Maximum DryBulb
    ,                         !- Daily WetBulb Temperature Range
    99110,                    !- Barometric Pressure
    5.5,                      !- Wind Speed
    220,                      !- Wind Direction
    No,                       !- Rain Indicator
    No,                       !- Snow Indicator
    No,                       !- Daylight Saving Time Indicator
    ASHRAETau,                !- Solar Model Indicator
    ,                         !- Beam Solar Day Schedule Name
    ,                         !- Diffuse Solar Day Schedule Name
    0.452,                    !- ASHRAE Clear Sky Optical Depth for Beam Irradiance taub
    2.212,                    !- ASHRAE Clear Sky Optical Depth for Diffuse Irradiance taud
    ,                         !- Sky Clearness
    ,                         !- Maximum Number Warmup Days
    FullResetAtBeginEnvironment;    !- Begin Environment Reset Mode

SizingPeriod:DesignDay,
    Chicago Midway Intl AP Ann Clg .4% Condns Enth=>MDB,    !- Name
    7,                        !- Month
    21,                       !- Day of Month
    SummerDesignDay,          !- Day Type
    31.2,                     !- Maximum DryBulb Temperature
    8.7,                      !- Daily DryBulb Temperature Range
    DefaultMultipliers,       !- DryBulb Temperature Range Modifier Type
    ,                         !- DryBulb Temperature Range Modifier Day Schedule Name
    Enthalpy,                 !- Humidity Condition Type
    ,                         !- Wetbulb or DewPoint at Maximum DryBulb
    ,                         !- Humidity Condition Day Schedule Name
    ,                         !- Humidity Ratio at Maximum DryBulb
    79000,                    !- Enthalpy at Maximum DryBulb
    ,                         !- Daily WetBulb Temperature Range
    99110,                    !- Barometric Pressure
    5.5,                      !- Wind Speed
    220,                      !- Wind Direction
    No,                       !- Rain Indicator
    No,                       !- Snow Indicator
    No,                       !- Daylight Saving Time Indicator
    ASHRAETau,                !- Solar Model Indicator
    ,                         !- Beam Solar Day Schedule Name
    ,                         !- Diffuse Solar Day Schedule Name
    0.452,                    !- ASHRAE Clear Sky Optical Depth for Beam Irradiance taub
    2.212,                    !- ASHRAE Clear Sky Optical Depth for Diffuse Irradiance taud
    ,                         !- Sky Clearness
    ,                         !- Maximum Number Warmup Days
    FullResetAtBeginEnvironment;    !- Begin Environment Reset Mode

SizingPeriod:DesignDay,
    Chicago Midway Intl AP Ann Clg .4% Condns WB=>MDB,    !- Name
    7,                        !- Month
    21,                       !- Day of Month
    SummerDesignDay,          !- Day Type
    31.1,                     !- Maximum DryBulb Temperature
    8.7,                      !- Daily DryBulb Temperature Range
    DefaultMultipliers,       !- DryBulb Temperature Range Modifier Type
    ,                         !- DryBulb Temperature Range Modifier Day Schedule Name
    Wetbulb,                  !- Humidity Condition Type
    25.5,                     !- Wetbulb or DewPoint at Maximum DryBulb
    ,                         !- Humidity Condition Day Schedule Name
    ,                         !- Humidity Ratio at Maximum DryBulb
    ,                         !- Enthalpy at Maximum DryBulb
    ,                         !- Daily WetBulb Temperature Range
    99110,                    !- Barometric Pressure
    5.5,                      !- Wind Speed
    220,                      !- Wind Direction
    No,                       !- Rain Indicator
    No,                       !- Snow Indicator
    No,                       !- Daylight Saving Time Indicator
    ASHRAETau,                !- Solar Model Indicator
    ,                         !- Beam Solar Day Schedule Name
    ,                         !- Diffuse Solar Day Schedule Name
    0.452,                    !- ASHRAE Clear Sky Optical Depth for Beam Irradiance taub
    2.212,                    !- ASHRAE Clear Sky Optical Depth for Diffuse Irradiance taud
    ,                         !- Sky Clearness
    ,                         !- Maximum Number Warmup Days
    FullResetAtBeginEnvironment;    !- Begin Environment Reset Mode

SizingPeriod:DesignDay,
    Chicago Midway Intl AP Ann Htg 99.6% Condns DB,    !- Name
    1,                        !- Month
    21,                       !- Day of Month
    WinterDesignDay,          !- Day Type
    -17.8,                    !- Maximum DryBulb Temperature
    0,                        !- Daily DryBulb Temperature Range
    DefaultMultipliers,       !- DryBulb Temperature Range Modifier Type
    ,                         !- DryBulb Temperature Range Modifier Day Schedule Name
    Wetbulb,                  !- Humidity Condition Type
    -17.8,                    !- Wetbulb or DewPoint at Maximum DryBulb
    ,                         !- Humidity Condition Day Schedule Name
    ,                         !- Humidity Ratio at Maximum DryBulb
    ,                         !- Enthalpy at Maximum DryBulb
    ,                         !- Daily WetBulb Temperature Range
    99110,                    !- Barometric Pressure
    5,                        !- Wind Speed
    270,                      !- Wind Direction
    No,                       !- Rain Indicator
    No,                       !- Snow Indicator
    No,                       !- Daylight Saving Time Indicator
    ASHRAEClearSky,           !- Solar Model Indicator
    ,                         !- Beam Solar Day Schedule Name
    ,                         !- Diffuse Solar Day Schedule Name
    ,                         !- ASHRAE Clear Sky Optical Depth for Beam Irradiance taub
    ,                         !- ASHRAE Clear Sky Optical Depth for Diffuse Irradiance taud
    0,                        !- Sky Clearness
    ,                         !- Maximum Number Warmup Days
    FullResetAtBeginEnvironment;    !- Begin Environment Reset Mode

SizingPeriod:DesignDay,
    Chicago Midway Intl AP Ann Htg Wind 99.6% Condns WS=>MCDB,    !- Name
    1,                        !- Month
    21,                       !- Day of Month
    WinterDesignDay,          !- Day Type
    -1.1,                     !- Maximum DryBulb Temperature
    0,                        !- Daily DryBulb Temperature Range
    DefaultMultipliers,       !- DryBulb Temperature Range Modifier Type
    ,                         !- DryBulb Temperature Range Modifier Day Schedule Name
    Wetbulb,                  !- Humidity Condition Type
    -1.1,                     !- Wetbulb or DewPoint at Maximum DryBulb
    ,                         !- Humidity Condition Day Schedule Name
    ,                         !- Humidity Ratio at Maximum DryBulb
    ,                         !- Enthalpy at Maximum DryBulb
    ,                         !- Daily WetBulb Temperature Range
    99110,                    !- Barometric Pressure
    11.6,                     !- Wind Speed
    270,                      !- Wind Direction
    No,                       !- Rain Indicator
    No,                       !- Snow Indicator
    No,                       !- Daylight Saving Time Indicator
    ASHRAEClearSky,           !- Solar Model Indicator
    ,                         !- Beam Solar Day Schedule Name
    ,                         !- Diffuse Solar Day Schedule Name
    ,                         !- ASHRAE Clear Sky Optical Depth for Beam Irradiance taub
    ,                         !- ASHRAE Clear Sky Optical Depth for Diffuse Irradiance taud
    0,                        !- Sky Clearness
    ,                         !- Maximum Number Warmup Days
    FullResetAtBeginEnvironment;    !- Begin Environment Reset Mode

SizingPeriod:DesignDay,
    Chicago Midway Intl AP Ann Hum_n 99.6% Condns DP=>MCDB,    !- Name
    1,                        !- Month
    21,                       !- Day of Month
    WinterDesignDay,          !- Day Type
    -16.5,                    !- Maximum DryBulb Temperature
    0,                        !- Daily DryBulb Temperature Range
    DefaultMultipliers,       !- DryBulb Temperature Range Modifier Type
    ,                         !- DryBulb Temperature Range Modifier Day Schedule Name
    Dewpoint,                 !- Humidity Condition Type
    -23.4,                    !- Wetbulb or DewPoint at Maximum DryBulb
    ,                         !- Humidity Condition Day Schedule Name
    ,                         !- Humidity Ratio at Maximum DryBulb
    ,                         !- Enthalpy at Maximum DryBulb
    ,                         !- Daily WetBulb Temperature Range
    99110,                    !- Barometric Pressure
    5,                        !- Wind Speed
    270,                      !- Wind Direction
    No,                       !- Rain Indicator
    No,                       !- Snow Indicator
    No,                       !- Daylight Saving Time Indicator
    ASHRAEClearSky,           !- Solar Model Indicator
    ,                         !- Beam Solar Day Schedule Name
    ,                         !- Diffuse Solar Day Schedule Name
    ,                         !- ASHRAE Clear Sky Optical Depth for Beam Irradiance taub
    ,                         !- ASHRAE Clear Sky Optical Depth for Diffuse Irradiance taud
    0,                        !- Sky Clearness
    ,                         !- Maximum Number Warmup Days
    FullResetAtBeginEnvironment;    !- Begin Environment Reset Mode

RunPeriod,
    Run Period 1,             !- Name
    1,                        !- Begin Month
    1,                        !- Begin Day of Month
    2006,                     !- Begin Year
    12,                       !- End Month
    31,                       !- End Day of Month
    2006,                     !- End Year
    Sunday,                   !- Day of Week for Start Day
    No,                       !- Use Weather File Holidays and Special Days
    No,                       !- Use Weather File Daylight Saving Period
    No,                       !- Apply Weekend Holiday Rule
    Yes,                      !- Use Weather File Rain Indicators
    Yes;                      !- Use Weather File Snow Indicators

Site:WaterMainsTemperature,
    CorrelationFromWeatherFile;    !- Calculation Method

ScheduleTypeLimits,
    100_Auditorium Thermostat Schedule Type Limits,    !- Name
    0,                        !- Lower Limit Value
    4,                        !- Upper Limit Value
    DISCRETE;                 !- Numeric Type

ScheduleTypeLimits,
    Temperature,              !- Name
    ,                         !- Lower Limit Value
    ,                         !- Upper Limit Value
    Continuous,               !- Numeric Type
    temperature;              !- Unit Type

ScheduleTypeLimits,
    102_Offices Thermostat Schedule Type Limits,    !- Name
    0,                        !- Lower Limit Value
    4,                        !- Upper Limit Value
    DISCRETE;                 !- Numeric Type

ScheduleTypeLimits,
    104_Storage Thermostat Schedule Type Limits,    !- Name
    0,                        !- Lower Limit Value
    4,                        !- Upper Limit Value
    DISCRETE;                 !- Numeric Type

ScheduleTypeLimits,
    108 Thermostat Schedule Type Limits,    !- Name
    0,                        !- Lower Limit Value
    4,                        !- Upper Limit Value
    DISCRETE;                 !- Numeric Type

ScheduleTypeLimits,
    109 Thermostat Schedule Type Limits,    !- Name
    0,                        !- Lower Limit Value
    4,                        !- Upper Limit Value
    DISCRETE;                 !- Numeric Type

ScheduleTypeLimits,
    112_Arc Thermostat Schedule Type Limits,    !- Name
    0,                        !- Lower Limit Value
    4,                        !- Upper Limit Value
    DISCRETE;                 !- Numeric Type

ScheduleTypeLimits,
    113_Career_Services Thermostat Schedule Type Limits,    !- Name
    0,                        !- Lower Limit Value
    4,                        !- Upper Limit Value
    DISCRETE;                 !- Numeric Type

ScheduleTypeLimits,
    114_offices Thermostat Schedule Type Limits,    !- Name
    0,                        !- Lower Limit Value
    4,                        !- Upper Limit Value
    DISCRETE;                 !- Numeric Type

ScheduleTypeLimits,
    AuditoriumLower_0b49d193 Thermostat Schedule Type Limits,    !- Name
    0,                        !- Lower Limit Value
    4,                        !- Upper Limit Value
    DISCRETE;                 !- Numeric Type

ScheduleTypeLimits,
    Auditorium_Lobby Thermostat Schedule Type Limits,    !- Name
    0,                        !- Lower Limit Value
    4,                        !- Upper Limit Value
    DISCRETE;                 !- Numeric Type

ScheduleTypeLimits,
    BogDining_e25f401a Thermostat Schedule Type Limits,    !- Name
    0,                        !- Lower Limit Value
    4,                        !- Upper Limit Value
    DISCRETE;                 !- Numeric Type

ScheduleTypeLimits,
    BogPlay_1_b863644b Thermostat Schedule Type Limits,    !- Name
    0,                        !- Lower Limit Value
    4,                        !- Upper Limit Value
    DISCRETE;                 !- Numeric Type

ScheduleTypeLimits,
    BogPlay_1_d1f076f9 Thermostat Schedule Type Limits,    !- Name
    0,                        !- Lower Limit Value
    4,                        !- Upper Limit Value
    DISCRETE;                 !- Numeric Type

ScheduleTypeLimits,
    BogPlay_2_4b3ae9fe Thermostat Schedule Type Limits,    !- Name
    0,                        !- Lower Limit Value
    4,                        !- Upper Limit Value
    DISCRETE;                 !- Numeric Type

ScheduleTypeLimits,
    BogPlay_2_d145e14c Thermostat Schedule Type Limits,    !- Name
    0,                        !- Lower Limit Value
    4,                        !- Upper Limit Value
    DISCRETE;                 !- Numeric Type

ScheduleTypeLimits,
    Classroom_1_90b605a9 Thermostat Schedule Type Limits,    !- Name
    0,                        !- Lower Limit Value
    4,                        !- Upper Limit Value
    DISCRETE;                 !- Numeric Type

ScheduleTypeLimits,
    Classroom_2_ecccf8b8 Thermostat Schedule Type Limits,    !- Name
    0,                        !- Lower Limit Value
    4,                        !- Upper Limit Value
    DISCRETE;                 !- Numeric Type

ScheduleTypeLimits,
    Corridor_1_fa1fe4c1 Thermostat Schedule Type Limits,    !- Name
    0,                        !- Lower Limit Value
    4,                        !- Upper Limit Value
    DISCRETE;                 !- Numeric Type

ScheduleTypeLimits,
    Corridor_2_cfbec8aa Thermostat Schedule Type Limits,    !- Name
    0,                        !- Lower Limit Value
    4,                        !- Upper Limit Value
    DISCRETE;                 !- Numeric Type

ScheduleTypeLimits,
    Corridor_3_7621fa0c Thermostat Schedule Type Limits,    !- Name
    0,                        !- Lower Limit Value
    4,                        !- Upper Limit Value
    DISCRETE;                 !- Numeric Type

ScheduleTypeLimits,
    Corridor_4_9b747ddd Thermostat Schedule Type Limits,    !- Name
    0,                        !- Lower Limit Value
    4,                        !- Upper Limit Value
    DISCRETE;                 !- Numeric Type

ScheduleTypeLimits,
    East_Corridor Thermostat Schedule Type Limits,    !- Name
    0,                        !- Lower Limit Value
    4,                        !- Upper Limit Value
    DISCRETE;                 !- Numeric Type

ScheduleTypeLimits,
    East_Small_Corridor Thermostat Schedule Type Limits,    !- Name
    0,                        !- Lower Limit Value
    4,                        !- Upper Limit Value
    DISCRETE;                 !- Numeric Type

ScheduleTypeLimits,
    Kitchen_1_55b9a759 Thermostat Schedule Type Limits,    !- Name
    0,                        !- Lower Limit Value
    4,                        !- Upper Limit Value
    DISCRETE;                 !- Numeric Type

ScheduleTypeLimits,
    Kitchen_2_b940211d Thermostat Schedule Type Limits,    !- Name
    0,                        !- Lower Limit Value
    4,                        !- Upper Limit Value
    DISCRETE;                 !- Numeric Type

ScheduleTypeLimits,
    Kitchen_3_3e9a0fb8 Thermostat Schedule Type Limits,    !- Name
    0,                        !- Lower Limit Value
    4,                        !- Upper Limit Value
    DISCRETE;                 !- Numeric Type

ScheduleTypeLimits,
    Mech_1_40a96879 Thermostat Schedule Type Limits,    !- Name
    0,                        !- Lower Limit Value
    4,                        !- Upper Limit Value
    DISCRETE;                 !- Numeric Type

ScheduleTypeLimits,
    Mech_2_c6abcc9a Thermostat Schedule Type Limits,    !- Name
    0,                        !- Lower Limit Value
    4,                        !- Upper Limit Value
    DISCRETE;                 !- Numeric Type

ScheduleTypeLimits,
    Mech_3_6e799e0f Thermostat Schedule Type Limits,    !- Name
    0,                        !- Lower Limit Value
    4,                        !- Upper Limit Value
    DISCRETE;                 !- Numeric Type

ScheduleTypeLimits,
    Mech_4_99985f88 Thermostat Schedule Type Limits,    !- Name
    0,                        !- Lower Limit Value
    4,                        !- Upper Limit Value
    DISCRETE;                 !- Numeric Type

ScheduleTypeLimits,
    North_Hall Thermostat Schedule Type Limits,    !- Name
    0,                        !- Lower Limit Value
    4,                        !- Upper Limit Value
    DISCRETE;                 !- Numeric Type

ScheduleTypeLimits,
    Office_1_b1424685 Thermostat Schedule Type Limits,    !- Name
    0,                        !- Lower Limit Value
    4,                        !- Upper Limit Value
    DISCRETE;                 !- Numeric Type

ScheduleTypeLimits,
    Office_2_37cc8413 Thermostat Schedule Type Limits,    !- Name
    0,                        !- Lower Limit Value
    4,                        !- Upper Limit Value
    DISCRETE;                 !- Numeric Type

ScheduleTypeLimits,
    Office_3_93b2c9ff Thermostat Schedule Type Limits,    !- Name
    0,                        !- Lower Limit Value
    4,                        !- Upper Limit Value
    DISCRETE;                 !- Numeric Type

ScheduleTypeLimits,
    Office_4_3dd7ebab Thermostat Schedule Type Limits,    !- Name
    0,                        !- Lower Limit Value
    4,                        !- Upper Limit Value
    DISCRETE;                 !- Numeric Type

ScheduleTypeLimits,
    Office_5_682148b2 Thermostat Schedule Type Limits,    !- Name
    0,                        !- Lower Limit Value
    4,                        !- Upper Limit Value
    DISCRETE;                 !- Numeric Type

ScheduleTypeLimits,
    Office_6_61dd9104 Thermostat Schedule Type Limits,    !- Name
    0,                        !- Lower Limit Value
    4,                        !- Upper Limit Value
    DISCRETE;                 !- Numeric Type

ScheduleTypeLimits,
    Restrooms Thermostat Schedule Type Limits,    !- Name
    0,                        !- Lower Limit Value
    4,                        !- Upper Limit Value
    DISCRETE;                 !- Numeric Type

ScheduleTypeLimits,
    Restroom_1_404313b9 Thermostat Schedule Type Limits,    !- Name
    0,                        !- Lower Limit Value
    4,                        !- Upper Limit Value
    DISCRETE;                 !- Numeric Type

ScheduleTypeLimits,
    Restroom_2_a377b4b3 Thermostat Schedule Type Limits,    !- Name
    0,                        !- Lower Limit Value
    4,                        !- Upper Limit Value
    DISCRETE;                 !- Numeric Type

ScheduleTypeLimits,
    Restroom_3_c201e5f7 Thermostat Schedule Type Limits,    !- Name
    0,                        !- Lower Limit Value
    4,                        !- Upper Limit Value
    DISCRETE;                 !- Numeric Type

ScheduleTypeLimits,
    Restroom_4_33babda2 Thermostat Schedule Type Limits,    !- Name
    0,                        !- Lower Limit Value
    4,                        !- Upper Limit Value
    DISCRETE;                 !- Numeric Type

ScheduleTypeLimits,
    Restroom_5_911a78e2 Thermostat Schedule Type Limits,    !- Name
    0,                        !- Lower Limit Value
    4,                        !- Upper Limit Value
    DISCRETE;                 !- Numeric Type

ScheduleTypeLimits,
    Restroom_6_a019d741 Thermostat Schedule Type Limits,    !- Name
    0,                        !- Lower Limit Value
    4,                        !- Upper Limit Value
    DISCRETE;                 !- Numeric Type

ScheduleTypeLimits,
    Room_13_b04291d5 Thermostat Schedule Type Limits,    !- Name
    0,                        !- Lower Limit Value
    4,                        !- Upper Limit Value
    DISCRETE;                 !- Numeric Type

ScheduleTypeLimits,
    SE_Hall_Piano Thermostat Schedule Type Limits,    !- Name
    0,                        !- Lower Limit Value
    4,                        !- Upper Limit Value
    DISCRETE;                 !- Numeric Type

ScheduleTypeLimits,
    Small_West_Corridor Thermostat Schedule Type Limits,    !- Name
    0,                        !- Lower Limit Value
    4,                        !- Upper Limit Value
    DISCRETE;                 !- Numeric Type

ScheduleTypeLimits,
    South_Hall Thermostat Schedule Type Limits,    !- Name
    0,                        !- Lower Limit Value
    4,                        !- Upper Limit Value
    DISCRETE;                 !- Numeric Type

ScheduleTypeLimits,
    Stair_1_1681051f Thermostat Schedule Type Limits,    !- Name
    0,                        !- Lower Limit Value
    4,                        !- Upper Limit Value
    DISCRETE;                 !- Numeric Type

ScheduleTypeLimits,
    Stair_2_976e6fd5 Thermostat Schedule Type Limits,    !- Name
    0,                        !- Lower Limit Value
    4,                        !- Upper Limit Value
    DISCRETE;                 !- Numeric Type

ScheduleTypeLimits,
    Stair_3_8f089848 Thermostat Schedule Type Limits,    !- Name
    0,                        !- Lower Limit Value
    4,                        !- Upper Limit Value
    DISCRETE;                 !- Numeric Type

ScheduleTypeLimits,
    Upstairs_Offices Thermostat Schedule Type Limits,    !- Name
    0,                        !- Lower Limit Value
    4,                        !- Upper Limit Value
    DISCRETE;                 !- Numeric Type

ScheduleTypeLimits,
    West_Corridor Thermostat Schedule Type Limits,    !- Name
    0,                        !- Lower Limit Value
    4,                        !- Upper Limit Value
    DISCRETE;                 !- Numeric Type

ScheduleTypeLimits,
    West_Office_Block Thermostat Schedule Type Limits,    !- Name
    0,                        !- Lower Limit Value
    4,                        !- Upper Limit Value
    DISCRETE;                 !- Numeric Type

ScheduleTypeLimits,
    Activity Level,           !- Name
    0,                        !- Lower Limit Value
    ,                         !- Upper Limit Value
    Continuous,               !- Numeric Type
    activitylevel;            !- Unit Type

ScheduleTypeLimits,
    ActivityLevel,            !- Name
    0,                        !- Lower Limit Value
    ,                         !- Upper Limit Value
    Continuous,               !- Numeric Type
    activitylevel;            !- Unit Type

ScheduleTypeLimits,
    Fractional,               !- Name
    0,                        !- Lower Limit Value
    1,                        !- Upper Limit Value
    Continuous,               !- Numeric Type
    dimensionless;            !- Unit Type

ScheduleTypeLimits,
    OnOff,                    !- Name
    0,                        !- Lower Limit Value
    1,                        !- Upper Limit Value
    Discrete,                 !- Numeric Type
    availability;             !- Unit Type

ScheduleTypeLimits,
    Temperature 1,            !- Name
    ,                         !- Lower Limit Value
    ,                         !- Upper Limit Value
    Continuous,               !- Numeric Type
    temperature;              !- Unit Type

Schedule:Day:Interval,
    SecondarySchool HtgSetp_Default,    !- Name
    Temperature,              !- Schedule Type Limits Name
    No,                       !- Interpolate to Timestep
    06:00,                    !- Time 1
    16,                       !- Value Until Time 1
    21:00,                    !- Time 2
    21,                       !- Value Until Time 2
    24:00,                    !- Time 3
    16;                       !- Value Until Time 3

Schedule:Day:Interval,
    Schedule Day 45,          !- Name
    Temperature,              !- Schedule Type Limits Name
    No,                       !- Interpolate to Timestep